
** Library name: ee313
** Cell name: inv
** View name: schematic
.subckt inv_pcell_4 a y
