
** Library name: ee313
** Cell name: nand
** View name: schematic
.subckt nand_pcell_2 a b y
