
** Library name: ee313
** Cell name: inv
** View name: schematic
.subckt inv_pcell_3 a y
